114
906_35_01010101.out
C          0.63780       -2.07660        4.28370
O         -0.26230       -2.78700        3.60590
C          0.38270       -3.81520        2.97850
C          1.73340       -3.73780        3.27930
C          1.89790       -2.61260        4.12380
C          3.20980       -2.18560        4.67250
O          4.22500       -2.77330        4.43710
O          3.18540       -1.09170        5.45530
C         -0.38800       -4.70510        2.19410
C          0.16010       -5.77470        1.51940
C         -0.54630       -6.68670        0.73130
C          0.01550       -7.80110        0.02120
C          1.33420       -8.24960       -0.03730
C          1.62740       -9.36970       -0.80030
C          0.61900      -10.03740       -1.49090
C         -0.70220       -9.60230       -1.44150
C         -1.01660       -8.47730       -0.68970
C         -2.28940       -7.81590       -0.41060
C         -1.98470       -6.67700        0.46230
O         -2.77350       -5.80670        0.84590
C         -3.50290       -8.17520       -0.96560
O         -3.43850       -9.07900       -1.98540
C         -4.68440       -9.35840       -2.45420
C         -5.60430       -8.61360       -1.67290
C         -4.90670       -7.87700       -0.74710
C         -5.75580       -7.13690        0.28030
O         -6.94390       -7.34170        0.24930
O         -5.18890       -6.35610        1.15130
C         -4.83380      -10.23750       -3.49920
C         -6.08830      -10.60110       -4.02720
C         -6.29100      -11.47670       -5.06260
C         -7.56920      -11.90970       -5.58720
C         -8.85380      -11.56150       -5.18850
C         -9.93690      -12.13300       -5.84320
C         -9.73440      -13.04600       -6.87300
C         -8.45350      -13.40280       -7.27900
C         -7.35570      -12.83020       -6.64520
C         -5.91790      -13.03060       -6.82240
C         -5.25160      -12.16100       -5.85280
O         -4.04200      -11.95130       -5.75470
C         -5.34030      -13.81010       -7.80940
O         -6.18910      -14.25050       -8.78300
C         -5.50670      -14.97920       -9.71060
C         -4.15450      -15.03690       -9.29140
C         -4.02280      -14.33530       -8.11720
C         -2.66810      -14.45410       -7.42880
O         -1.88090      -15.23010       -7.90770
O         -2.42190      -13.76190       -6.35350
C         -6.13320      -15.53040      -10.80040
C         -7.52300      -15.41010      -11.01480
C         -8.22440      -15.95040      -12.05880
C         -9.65490      -15.87280      -12.26450
C        -10.62870      -15.25650      -11.48800
C        -11.95540      -15.33550      -11.89010
C        -12.29890      -16.02980      -13.04560
C        -11.33300      -16.65180      -13.82880
C         -9.99700      -16.57180      -13.45040
C         -8.78410      -17.14150      -14.03760
C         -7.67190      -16.72830      -13.18650
O         -6.47060      -16.90510      -13.39080
C         -8.73400      -17.83140      -15.23820
O         -9.86830      -17.78210      -15.99290
C         -9.69030      -18.46910      -17.15820
C         -8.38390      -19.01450      -17.13100
C         -7.77320      -18.64740      -15.95510
C         -6.42940      -19.30830      -15.67600
O         -6.07730      -20.16960      -16.44130
O         -5.73890      -18.96070      -14.62760
C        -10.68450      -18.56350      -18.09940
C        -11.96060      -17.98610      -17.91990
C        -12.98910      -18.06310      -18.81720
C        -14.30790      -17.51530      -18.66650
C        -14.88770      -16.79840      -17.62590
C        -16.20830      -16.39110      -17.74390
C        -16.96140      -16.68940      -18.89190
C        -16.41660      -17.39750      -19.93910
C        -15.07520      -17.82840      -19.84770
C        -14.28860      -18.55350      -20.73900
C        -12.96510      -18.74540      -20.16470
O        -12.02050      -19.32990      -20.65730
H          0.27320       -1.22360        4.83550
H          2.52260       -4.39150        2.94860
H          2.31430       -0.69640        5.57820
H         -1.45080       -4.50200        2.14630
H          1.23370       -5.93170        1.60220
H          2.11900       -7.73430        0.50470
H          2.64790       -9.73030       -0.85790
H          0.86500      -10.91430       -2.07870
H         -1.45670      -10.15150       -1.98750
H         -6.67790       -8.63580       -1.77230
H         -4.20320       -6.13470        1.00880
H         -3.93040      -10.66740       -3.91430
H         -6.96760      -10.16290       -3.55940
H         -9.01260      -10.85680       -4.38020
H        -10.94580      -11.86980       -5.54680
H        -10.58980      -13.49070       -7.36940
H         -8.33720      -14.12390       -8.07630
H         -3.36740      -15.57210       -9.79880
H         -3.08080      -13.02450       -6.12370
H         -5.51950      -16.08200      -11.50060
H         -8.07960      -14.84960      -10.26700
H        -10.36110      -14.72240      -10.58310
H        -12.72770      -14.85730      -11.29850
H        -13.34010      -16.09010      -13.34290
H        -11.64200      -17.19050      -14.71390
H         -7.95330      -19.64040      -17.89660
H         -6.03560      -18.12330      -14.13960
H        -10.46500      -19.11350      -19.00610
H        -12.12710      -17.45030      -16.98760
H        -14.32080      -16.55950      -16.73280
H        -16.67200      -15.83270      -16.93860
H        -17.99060      -16.35210      -18.94520
H        -17.00060      -17.62620      -20.82290
H        -14.58530      -18.92810      -21.70580
